Input Parameters:
   integrator                     = md
   tinit                          = 0
   dt                             = 0.002
   nsteps                         = 50000
   init-step                      = 0
   simulation-part                = 1
   comm-mode                      = Linear
   nstcomm                        = 100
   bd-fric                        = 0
   ld-seed                        = 3823644124
   emtol                          = 10
   emstep                         = 0.01
   niter                          = 20
   fcstep                         = 0
   nstcgsteep                     = 1000
   nbfgscorr                      = 10
   rtpi                           = 0.05
   nstxout                        = 0
   nstvout                        = 5000
   nstfout                        = 5000
   nstlog                         = 1000
   nstcalcenergy                  = 100
   nstenergy                      = 5000
   nstxout-compressed             = 5000
   compressed-x-precision         = 1000
   cutoff-scheme                  = Verlet
   nstlist                        = 40
   ns-type                        = Grid
   pbc                            = xyz
   periodic-molecules             = FALSE
   verlet-buffer-tolerance        = 0.005
   rlist                          = 1.477
   rlistlong                      = 1.477
   nstcalclr                      = 20
   coulombtype                    = PME
   coulomb-modifier               = Potential-shift
   rcoulomb-switch                = 0
   rcoulomb                       = 1.4
   epsilon-r                      = 1
   epsilon-rf                     = inf
   vdw-type                       = Cut-off
   vdw-modifier                   = Potential-shift
   rvdw-switch                    = 0
   rvdw                           = 1.4
   DispCorr                       = EnerPres
   table-extension                = 1
   fourierspacing                 = 0.12
   fourier-nx                     = 56
   fourier-ny                     = 40
   fourier-nz                     = 104
   pme-order                      = 4
   ewald-rtol                     = 1e-05
   ewald-rtol-lj                  = 0.001
   lj-pme-comb-rule               = Geometric
   ewald-geometry                 = 0
   epsilon-surface                = 0
   implicit-solvent               = No
   gb-algorithm                   = Still
   nstgbradii                     = 1
   rgbradii                       = 1
   gb-epsilon-solvent             = 80
   gb-saltconc                    = 0
   gb-obc-alpha                   = 1
   gb-obc-beta                    = 0.8
   gb-obc-gamma                   = 4.85
   gb-dielectric-offset           = 0.009
   sa-algorithm                   = Ace-approximation
   sa-surface-tension             = 2.05016
   tcoupl                         = Berendsen
   nsttcouple                     = 20
   nh-chain-length                = 0
   print-nose-hoover-chain-variables = FALSE
   pcoupl                         = Berendsen
   pcoupltype                     = Isotropic
   nstpcouple                     = 20
   tau-p                          = 1
   compressibility (3x3):
      compressibility[    0]={ 4.50000e-05,  0.00000e+00,  0.00000e+00}
      compressibility[    1]={ 0.00000e+00,  4.50000e-05,  0.00000e+00}
      compressibility[    2]={ 0.00000e+00,  0.00000e+00,  4.50000e-05}
   ref-p (3x3):
      ref-p[    0]={ 1.00000e+00,  0.00000e+00,  0.00000e+00}
      ref-p[    1]={ 0.00000e+00,  1.00000e+00,  0.00000e+00}
      ref-p[    2]={ 0.00000e+00,  0.00000e+00,  1.00000e+00}
   refcoord-scaling               = COM
   posres-com (3):
      posres-com[0]= 4.98089e-01
      posres-com[1]= 5.00313e-01
      posres-com[2]= 2.47321e-01
   posres-comB (3):
      posres-comB[0]= 4.98089e-01
      posres-comB[1]= 5.00313e-01
      posres-comB[2]= 2.47321e-01
   QMMM                           = FALSE
   QMconstraints                  = 0
   QMMMscheme                     = 0
   MMChargeScaleFactor            = 1
qm-opts:
   ngQM                           = 0
   constraint-algorithm           = Lincs
   continuation                   = FALSE
   Shake-SOR                      = FALSE
   shake-tol                      = 0.0001
   lincs-order                    = 4
   lincs-iter                     = 1
   lincs-warnangle                = 30
   nwall                          = 0
   wall-type                      = 9-3
   wall-r-linpot                  = -1
   wall-atomtype[0]               = -1
   wall-atomtype[1]               = -1
   wall-density[0]                = 0
   wall-density[1]                = 0
   wall-ewald-zfac                = 3
   pull                           = TRUE
   pull-cylinder-r                = 1.5
   pull-constr-tol                = 1e-06
   pull-print-COM1                = FALSE
   pull-print-COM2                = FALSE
   pull-print-ref-value           = FALSE
   pull-print-components          = FALSE
   pull-nstxout                   = 50
   pull-nstfout                   = 50
   pull-ngroups                   = 3
   pull-group 0:
     atom: not available
     weight: not available
     pbcatom                        = -1
   pull-group 1:
     atom (226):
        atom[0,...,225] = {0,...,225}
     weight: not available
     pbcatom                        = 112
   pull-group 2:
     atom (226):
        atom[0,...,225] = {226,...,451}
     weight: not available
     pbcatom                        = 338
   pull-ncoords                   = 1
   pull-coord 0:
   group[0]                       = 1
   group[1]                       = 2
   type                           = umbrella
   geometry                       = distance
   dim (3):
      dim[0]=0
      dim[1]=0
      dim[2]=1
   origin (3):
      origin[0]= 0.00000e+00
      origin[1]= 0.00000e+00
      origin[2]= 0.00000e+00
   vec (3):
      vec[0]= 0.00000e+00
      vec[1]= 0.00000e+00
      vec[2]= 0.00000e+00
   start                          = TRUE
   init                           = 0.507118
   rate                           = 0
   k                              = 1000
   kB                             = 1000
   rotation                       = FALSE
   interactiveMD                  = FALSE
   disre                          = No
   disre-weighting                = Conservative
   disre-mixed                    = FALSE
   dr-fc                          = 1000
   dr-tau                         = 0
   nstdisreout                    = 100
   orire-fc                       = 0
   orire-tau                      = 0
   nstorireout                    = 100
   free-energy                    = no
   cos-acceleration               = 0
   deform (3x3):
      deform[    0]={ 0.00000e+00,  0.00000e+00,  0.00000e+00}
      deform[    1]={ 0.00000e+00,  0.00000e+00,  0.00000e+00}
      deform[    2]={ 0.00000e+00,  0.00000e+00,  0.00000e+00}
   simulated-tempering            = FALSE
   E-x:
      n = 0
   E-xt:
      n = 0
   E-y:
      n = 0
   E-yt:
      n = 0
   E-z:
      n = 0
   E-zt:
      n = 0
   swapcoords                     = no
   adress                         = FALSE
   userint1                       = 0
   userint2                       = 0
   userint3                       = 0
   userint4                       = 0
   userreal1                      = 0
   userreal2                      = 0
   userreal3                      = 0
   userreal4                      = 0
grpopts:
   nrdf:      2254.9     64203.1
   ref-t:         310         310
   tau-t:         0.5         0.5
annealing:          No          No
annealing-npoints:           0           0
   acc:	           0           0           0
   nfreeze:           N           N           N
   energygrp-flags[  0]: 0

Initializing Domain Decomposition on 8 ranks
Dynamic load balancing: auto
Will sort the charge groups at every domain (re)decomposition
Initial maximum inter charge-group distances:
    two-body bonded interactions: 0.426 nm, LJ-14, atoms 171 174
  multi-body bonded interactions: 0.426 nm, Proper Dih., atoms 171 174
Minimum cell size due to bonded interactions: 0.468 nm
Maximum distance for 5 constraints, at 120 deg. angles, all-trans: 0.820 nm
Estimated maximum distance required for P-LINCS: 0.820 nm
This distance will limit the DD cell size, you can override this with -rcon
Using 0 separate PME ranks, per user request
Scaling the initial minimum size with 1/0.8 (option -dds) = 1.25
Optimizing the DD grid for 8 cells with a minimum initial size of 1.025 nm
The maximum allowed number of cells is: X 6 Y 4 Z 11
Domain decomposition grid 4 x 1 x 2, separate PME ranks 0
PME domain decomposition: 8 x 1 x 1
Domain decomposition rank 0, coordinates 0 0 0

Using 8 MPI threads
Using 6 OpenMP threads per tMPI thread

2 compatible GPUs are present, with IDs 0,1
2 GPUs auto-selected for this run.
Mapping of GPU IDs to the 8 PP ranks in this node: 0,0,0,0,1,1,1,1

Will do PME sum in reciprocal space for electrostatic interactions.

Will do ordinary reciprocal space Ewald sum.
Using a Gaussian width (1/beta) of 0.448228 nm for Ewald
Cut-off's:   NS: 1.477   Coulomb: 1.4   LJ: 1.4
Long Range LJ corr.: <C6> 3.3659e-04
System total charge: 0.000
Generated table with 1238 data points for Ewald.
Tabscale = 500 points/nm
Generated table with 1238 data points for LJ6.
Tabscale = 500 points/nm
Generated table with 1238 data points for LJ12.
Tabscale = 500 points/nm
Generated table with 1238 data points for 1-4 COUL.
Tabscale = 500 points/nm
Generated table with 1238 data points for 1-4 LJ6.
Tabscale = 500 points/nm
Generated table with 1238 data points for 1-4 LJ12.
Tabscale = 500 points/nm
Potential shift: LJ r^-12: -1.764e-02 r^-6: -1.328e-01, Ewald -1.000e-05
Initialized non-bonded Ewald correction tables, spacing: 1.10e-03 size: 1270

Using GPU 8x8 non-bonded kernels

Removing pbc first time
Pinning threads with an auto-selected logical core stride of 1

Will apply potential COM pulling
with 1 pull coordinate and 3 groups
Pull group 1:   226 atoms, mass  2617.110
Pull group 2:   226 atoms, mass  2617.110

Initializing Parallel LINear Constraint Solver

The number of constraints is 1135
There are inter charge-group constraints,
will communicate selected coordinates each lincs iteration

Linking all bonded interactions to atoms

The initial number of communication pulses is: X 1 Z 1
The initial domain decomposition cell size is: X 1.65 nm Z 6.04 nm

The maximum allowed distance for charge groups involved in interactions is:
                 non-bonded interactions           1.477 nm
(the following are initial values, they could change due to box deformation)
            two-body bonded interactions  (-rdd)   1.477 nm
          multi-body bonded interactions  (-rdd)   1.477 nm
  atoms separated by up to 5 constraints  (-rcon)  1.650 nm

When dynamic load balancing gets turned on, these settings will change to:
The maximum number of communication pulses is: X 2 Z 1
The minimum size for domain decomposition cells is 1.038 nm
The requested allowed shrink of DD cells (option -dds) is: 0.80
The allowed shrink of domain decomposition cells is: X 0.63 Z 0.24
The maximum allowed distance for charge groups involved in interactions is:
                 non-bonded interactions           1.477 nm
            two-body bonded interactions  (-rdd)   1.477 nm
          multi-body bonded interactions  (-rdd)   1.038 nm
  atoms separated by up to 5 constraints  (-rcon)  1.038 nm

Making 2D domain decomposition grid 4 x 1 x 2, home cell index 0 0 0

Center of mass motion removal mode is Linear
We have the following groups for center of mass motion removal:
  0:  rest

There are: 33207 Atoms
Atom distribution over 8 domains: av 4150 stddev 142 min 3932 max 4250

NOTE: DLB will not turn on during the first phase of PME tuning

Constraining the starting coordinates (step 0)

Constraining the coordinates at t0-dt (step 0)
RMS relative constraint deviation after constraining: 2.42e-05
Initial temperature: 311.542 K

Started mdrun on rank 0 Thu May 19 11:36:20 2022
           Step           Time         Lambda
              0        0.00000        0.00000

   Energies (kJ/mol)
       G96Angle    Proper Dih.  Improper Dih.          LJ-14     Coulomb-14
    1.61775e+03    7.81457e+02    5.26086e+02   -1.87792e+02    2.40637e+04
        LJ (SR)  Disper. corr.   Coulomb (SR)   Coul. recip. Position Rest.
    7.03710e+04   -1.61914e+03   -5.66889e+05    1.11142e+03    7.48361e-03
    2.06358e-13   -4.70224e+05    8.70885e+04   -3.83136e+05    3.15217e+02
   -7.69050e+01    1.43367e+01    1.78118e-05

	<====  A V E R A G E S  ====>

	Statistics over 50001 steps using 501 frames

   Energies (kJ/mol)
       G96Angle    Proper Dih.  Improper Dih.          LJ-14     Coulomb-14
    1.73159e+03    7.39540e+02    5.60204e+02   -1.91312e+02    2.40063e+04
        LJ (SR)  Disper. corr.   Coulomb (SR)   Coul. recip. Position Rest.
    7.11804e+04   -1.63000e+03   -5.68769e+05    3.97890e+02    1.16884e+02
   COM Pull En.      Potential    Kinetic En.   Total Energy    Temperature
    5.97764e-02   -4.71857e+05    8.56781e+04   -3.86179e+05    3.10112e+02
 Pres. DC (bar) Pressure (bar)   Constr. rmsd
   -7.79401e+01   -3.66757e+00    0.00000e+00

          Box-X          Box-Y          Box-Z
    6.58575e+00    4.37913e+00    1.20471e+01

   Total Virial (kJ/mol)
    2.86191e+04   -7.30152e+01    7.10106e+00
   -7.23951e+01    2.85770e+04    5.04665e+01
    7.17209e+00    4.95519e+01    2.85977e+04

   Pressure (bar)
   -2.54793e+00    6.34553e+00   -4.34299e-01
    6.28632e+00    5.23569e+00   -4.06961e-01
   -4.40808e-01   -3.19440e-01   -1.36905e+01

      T-Protein  T-non-Protein
    3.09265e+02    3.10142e+02
